
#======================================================================
# CRYSTAL DATA
#----------------------------------------------------------------------
data_VESTA_phase_1

_chemical_name_common                  'Lu12 Fe12 O36'
_cell_length_a                         10.444551
_cell_length_b                         11.741429
_cell_length_c                         6.030165
_cell_angle_alpha                      90.000000
_cell_angle_beta                       90.000000
_cell_angle_gamma                      90.000000
_cell_volume                           739.502997
_space_group_name_H-M_alt              'P 1'
_space_group_IT_number                 1

loop_
_space_group_symop_operation_xyz
   'x, y, z'

loop_
   _atom_site_label
   _atom_site_occupancy
   _atom_site_fract_x
   _atom_site_fract_y
   _atom_site_fract_z
   _atom_site_adp_type
   _atom_site_U_iso_or_equiv
   _atom_site_type_symbol
   Lu0        1.0     0.000000     0.223473     0.000000    Uiso  ? Lu
   Lu1        1.0     0.000000     0.723473     0.000000    Uiso  ? Lu
   Lu2        1.0     0.333333     0.766807     0.000000    Uiso  ? Lu
   Lu3        1.0     0.166667     0.266807     0.500000    Uiso  ? Lu
   Lu4        1.0     0.333333     0.266807     0.000000    Uiso  ? Lu
   Lu5        1.0     0.166667     0.766807     0.500000    Uiso  ? Lu
   Fe6        1.0     0.000000     0.498821     0.666023    Uiso  ? Fe
   Fe7        1.0     0.333012     0.998821     0.333012    Uiso  ? Fe
   Fe8        1.0     0.000000     0.998821     0.333977    Uiso  ? Fe
   Fe9        1.0     0.166989     0.498821     0.166989    Uiso  ? Fe
   O10        1.0     0.000000     0.331872     0.695266    Uiso  ? O
   O11        1.0     0.347633     0.831872     0.347633    Uiso  ? O
   O12        1.0     0.000000     0.831872     0.304734    Uiso  ? O
   O13        1.0     0.152367     0.331872     0.152367    Uiso  ? O
   O14        1.0     0.000000     0.163894     0.361864    Uiso  ? O
   O15        1.0     0.180932     0.663894     0.180932    Uiso  ? O
   O16        1.0     0.000000     0.663894     0.638136    Uiso  ? O
   O17        1.0     0.319068     0.163894     0.319068    Uiso  ? O
   O18        1.0     0.000000     0.024995     0.000000    Uiso  ? O
   O19        1.0     0.000000     0.524995     0.000000    Uiso  ? O
   O20        1.0     0.333333     0.976571     0.000000    Uiso  ? O
   O21        1.0     0.166667     0.476571     0.500000    Uiso  ? O
   O22        1.0     0.333333     0.476571     0.000000    Uiso  ? O
   O23        1.0     0.166667     0.976571     0.500000    Uiso  ? O
   Lu24       1.0     0.666667     0.266807     0.000000    Uiso  ? Lu
   Lu25       1.0     0.666667     0.766807     0.000000    Uiso  ? Lu
   Fe26       1.0     0.500000     0.498821     0.166023    Uiso  ? Fe
   O27        1.0     0.500000     0.331872     0.195266    Uiso  ? O
   O28        1.0     0.500000     0.663894     0.138136    Uiso  ? O
   O29        1.0     0.666667     0.476571     0.000000    Uiso  ? O
   O30        1.0     0.666667     0.976571     0.000000    Uiso  ? O
   Fe31       1.0     0.333012     0.498821     0.666988    Uiso  ? Fe
   Fe32       1.0     0.166989     0.998821     0.833012    Uiso  ? Fe
   O33        1.0     0.347633     0.331872     0.652367    Uiso  ? O
   O34        1.0     0.152367     0.831872     0.847633    Uiso  ? O
   O35        1.0     0.180932     0.163894     0.819068    Uiso  ? O
   O36        1.0     0.319068     0.663894     0.680932    Uiso  ? O
   Lu37       1.0     0.500000     0.223473     0.500000    Uiso  ? Lu
   Lu38       1.0     0.500000     0.723473     0.500000    Uiso  ? Lu
   Lu39       1.0     0.833333     0.766807     0.500000    Uiso  ? Lu
   Lu40       1.0     0.833333     0.266807     0.500000    Uiso  ? Lu
   Fe41       1.0     0.833012     0.998821     0.833012    Uiso  ? Fe
   Fe42       1.0     0.833012     0.498821     0.166989    Uiso  ? Fe
   Fe43       1.0     0.500000     0.998821     0.833977    Uiso  ? Fe
   Fe44       1.0     0.666988     0.498821     0.666988    Uiso  ? Fe
   Fe45       1.0     0.666988     0.998821     0.333012    Uiso  ? Fe
   O46        1.0     0.847633     0.831872     0.847633    Uiso  ? O
   O47        1.0     0.847633     0.331872     0.152367    Uiso  ? O
   O48        1.0     0.500000     0.831872     0.804734    Uiso  ? O
   O49        1.0     0.652367     0.331872     0.652367    Uiso  ? O
   O50        1.0     0.652367     0.831872     0.347633    Uiso  ? O
   O51        1.0     0.500000     0.163894     0.861864    Uiso  ? O
   O52        1.0     0.680932     0.663894     0.680932    Uiso  ? O
   O53        1.0     0.680932     0.163894     0.319068    Uiso  ? O
   O54        1.0     0.819068     0.163894     0.819068    Uiso  ? O
   O55        1.0     0.819068     0.663894     0.180932    Uiso  ? O
   O56        1.0     0.500000     0.024995     0.500000    Uiso  ? O
   O57        1.0     0.500000     0.524995     0.500000    Uiso  ? O
   O58        1.0     0.833333     0.976571     0.500000    Uiso  ? O
   O59        1.0     0.833333     0.476571     0.500000    Uiso  ? O
